         364
   ETOT =   -26606.409752      T_instantaneous =      0.0000
  Si      6.222276     11.765566     11.747395
  Si      6.155228     11.728045     17.165928
  Si      6.147814     17.219237     11.688243
  Si      6.209720     17.208415     17.114614
  Si     11.751260      6.266762     11.746957
  Si     11.706155      6.199019     17.187813
  Si     11.725481     11.770642      6.239675
  Si     11.688591     11.735453     11.703786
  Si     11.669330     11.738078     17.186835
  Si     11.626222     11.735761     22.689977
  Si     11.690996     17.192280      6.156067
  Si     11.680186     17.226008     11.673668
  Si     11.646471     17.238911     17.145122
  Si     11.633503     17.260655     22.626389
  Si     11.682427     22.733373     11.609748
  Si     11.686267     22.748073     17.080755
  Si     17.183345      6.217772     11.716670
  Si     17.137206      6.289445     17.175273
  Si     17.176878     11.725878      6.171269
  Si     17.180810     11.731417     11.704537
  Si     17.144081     11.731914     17.192452
  Si     17.092464     11.776361     22.694761
  Si     17.158892     17.145795      6.220593
  Si     17.174382     17.196393     11.665982
  Si     17.136738     17.221326     17.157854
  Si     17.193934     22.675286     11.641552
  Si     22.696789     11.705707     11.702192
  Si     22.632325     11.743069     17.220954
  Si     22.684158     17.160355     11.707037
  Si      6.224648      8.983693     14.477290
  Si      6.197581     14.505436      8.981620
  Si      6.142184     14.481672     14.434713
  Si      6.182362     14.456247     19.870003
  Si      6.194843     19.968204     14.363633
  Si     11.602043      3.503306     14.328236
  Si     11.739758      9.023252      8.996267
  Si     11.695611      8.978536     14.456000
  Si     11.675408      8.979379     19.929755
  Si     11.547270     14.346294      3.476585
  Si     11.687498     14.477031      8.942155
  Si     11.669557     14.484407     14.430092
  Si     11.641982     14.491291     19.925811
  Si     11.699704     19.947235      8.904615
  Si     11.672413     19.997927     14.377413
  Si     11.657550     19.988407     19.839120
  Si     17.331220      3.528720     14.585165
  Si     17.184795      8.988290      8.961415
  Si     17.169702      8.988208     14.454870
  Si     17.098365      9.042696     19.931479
  Si     17.325183     14.567165      3.470211
  Si     17.183131     14.455225      8.937885
  Si     17.161499     14.468031     14.431024
  Si     17.116574     14.481138     19.932417
  Si     17.152411     19.901430      8.947248
  Si     17.167870     19.956669     14.383121
  Si     22.659523      9.001436     14.463448
  Si     22.683662     14.421868      8.954504
  Si     22.688705     14.449244     14.463742
  Si      7.605022      7.611557     15.798647
  Si      7.554564     13.114292     10.332538
  Si      7.532941     13.107375     15.801872
  Si      7.555695     13.144328     21.253317
  Si      7.572788     18.550401     10.337616
  Si      7.542996     18.620289     15.761809
  Si     13.087764      7.610619     10.332966
  Si     13.068813      7.588237     15.820571
  Si     13.064283      7.636618     21.293360
  Si     13.050667     13.095106      4.793776
  Si     13.059269     13.103522     10.318437
  Si     13.033694     13.105019     15.804301
  Si     12.999491     13.119880     21.328161
  Si     13.077872     18.543797      4.799783
  Si     13.058454     18.579636     10.288035
  Si     13.024991     18.606940     15.761550
  Si     12.964834     18.615486     21.232233
  Si     12.945603     24.033044     10.101647
  Si     13.175673     24.076197     15.833578
  Si     18.520650      7.640386     10.377698
  Si     18.543907      7.622880     15.825172
  Si     18.556678     13.088866      4.821396
  Si     18.555228     13.088146     10.321039
  Si     18.527621     13.095452     15.813561
  Si     18.458912     13.092844     21.300017
  Si     18.558967     18.553229     10.293213
  Si     18.494368     18.544659     15.740932
  Si     24.022887     12.939489     10.194272
  Si     23.995714     13.197849     15.975795
  Si      7.565033     10.350706     13.086587
  Si      7.577810     10.391584     18.509308
  Si      7.573168     15.822908      7.599952
  Si      7.530381     15.852883     13.059267
  Si      7.536486     15.855927     18.526987
  Si      7.573159     21.333977     13.035502
  Si     13.089123      4.830318     13.070508
  Si     13.084988      4.858596     18.563580
  Si     13.076623     10.362286      7.576570
  Si     13.060441     10.356232     13.077629
  Si     13.034838     10.361468     18.561019
  Si     12.871018     10.237094     24.017093
  Si     13.062119     15.830291      7.542710
  Si     13.041675     15.846201     13.045442
  Si     13.008146     15.860791     18.532063
  Si     13.087335     16.016656     23.992852
  Si     13.103359     21.286087      7.551085
  Si     13.053120     21.372762     12.996967
  Si     12.990269     21.354062     18.460287
  Si     18.554604      4.877672     13.098782
  Si     18.516580     10.390816      7.600095
  Si     18.546177     10.358852     13.082532
  Si     18.512443     10.370363     18.576381
  Si     18.569026     15.803854      7.562742
  Si     18.545230     15.823293     13.048614
  Si     18.466488     15.812268     18.515865
  Si     18.538946     21.286537     12.985501
  Si     24.008985     10.208763     12.963937
  Si     24.019710     15.928662     13.201251
  Si      3.470647     11.575895     14.321263
  Si      3.458669     17.372151     14.548765
  Si      8.988607      6.236509     14.483089
  Si      8.973913     11.772053      8.997201
  Si      8.932050     11.733927     14.446979
  Si      8.911263     11.745125     19.912745
  Si      8.933638     17.216018      8.934487
  Si      8.917530     17.235669     14.410183
  Si      8.938810     17.209041     19.862703
  Si      8.938975     22.736380     14.340467
  Si     14.484725      6.264477      8.977971
  Si     14.449695      6.200839     14.455720
  Si     14.392711      6.261358     19.926637
  Si     14.304463     11.595187      3.477814
  Si     14.441974     11.734176      8.949799
  Si     14.421908     11.734232     14.445653
  Si     14.381638     11.746710     19.950318
  Si     14.573594     17.317886      3.462354
  Si     14.433455     17.198408      8.923697
  Si     14.409591     17.223885     14.407348
  Si     14.363593     17.247267     19.900583
  Si     14.441318     22.677302      8.896631
  Si     14.438763     22.743766     14.355935
  Si     19.898500      6.270151     14.437343
  Si     19.927967     11.723496      8.948530
  Si     19.927532     11.728137     14.452695
  Si     19.844323     11.765459     19.938051
  Si     19.918622     17.137020      8.972773
  Si     19.917213     17.196108     14.414770
  Si      3.457604     14.347024     11.579830
  Si      3.457885     14.603500     17.293341
  Si      8.987628      9.013719     11.749689
  Si      8.940999      8.975979     17.186775
  Si      8.948368     14.499812      6.225484
  Si      8.928483     14.486322     11.696858
  Si      8.913556     14.485826     17.163543
  Si      8.902161     14.485687     22.641065
  Si      8.924983     19.969175     11.657672
  Si      8.955751     19.979752     17.081175
  Si     14.349356      3.518254     11.570144
  Si     14.584123      3.521126     17.340905
  Si     14.472333      9.012052      6.224800
  Si     14.444859      8.985797     11.711203
  Si     14.417449      8.985712     17.195713
  Si     14.371810      9.009053     22.686919
  Si     14.437685     14.461907      6.155887
  Si     14.427887     14.473373     11.687280
  Si     14.394257     14.482807     17.173840
  Si     14.356865     14.513867     22.692185
  Si     14.415019     19.898713      6.182771
  Si     14.429828     19.969160     11.647222
  Si     14.389402     19.988893     17.126150
  Si     19.922641      8.983887     11.724376
  Si     19.875213      9.034137     17.173458
  Si     19.918514     14.411434      6.211088
  Si     19.943296     14.447849     11.694886
  Si     19.891713     14.462863     17.193167
  Si     19.916328     19.898054     11.680002
  Si      4.778242     13.090845     13.074081
  Si      4.800225     13.112855     18.520110
  Si      4.799713     18.598432     13.055326
  Si     10.330693      7.598811     13.089977
  Si     10.353507      7.621295     18.518341
  Si     10.308381     13.112083      7.575899
  Si     10.300814     13.107945     13.067820
  Si     10.283286     13.113165     18.542465
  Si     10.119274     12.995363     23.993377
  Si     10.351092     18.537897      7.572208
  Si     10.295972     18.601775     13.029282
  Si     10.272274     18.620986     18.503649
  Si     10.174860     24.062006     12.840869
  Si     15.800148      7.643513      7.601986
  Si     15.810508      7.597241     13.084118
  Si     15.778920      7.621745     18.579970
  Si     15.807607     13.095609      7.551427
  Si     15.792565     13.097302     13.062967
  Si     15.755532     13.106738     18.557247
  Si     15.841367     13.259233     24.025337
  Si     15.805627     18.557900      7.545634
  Si     15.791400     18.581210     13.024372
  Si     15.715917     18.574171     18.481845
  Si     15.950885     24.042384     13.094993
  Si     21.277372      7.645952     13.125811
  Si     21.291198     13.099733      7.594983
  Si     21.327619     13.081443     13.076267
  Si     21.231376     13.076547     18.564599
  Si     21.284062     18.528481     13.016355
  Si      4.822930     10.340669     15.795551
  Si      4.798296     15.828289     10.337517
  Si      4.773073     15.866850     15.799028
  Si     10.353545      4.843872     15.803876
  Si     10.322115     10.361898     10.336567
  Si     10.308321     10.355404     15.819416
  Si     10.314978     10.393860     21.249790
  Si     10.306302     15.818657      4.825009
  Si     10.305886     15.851685     10.311749
  Si     10.280716     15.856147     15.782806
  Si     10.268009     15.869024     21.294176
  Si     10.344567     21.288053     10.300373
  Si     10.300480     21.392819     15.730017
  Si     15.817383      4.875619     10.334348
  Si     15.827596      4.842838     15.838027
  Si     15.792275     10.366527      4.823011
  Si     15.813650     10.360877     10.331044
  Si     15.783771     10.355724     15.817651
  Si     15.745463     10.384163     21.342703
  Si     15.824545     15.821588      4.785061
  Si     15.800177     15.825700     10.299644
  Si     15.772642     15.845506     15.789834
  Si     15.694637     15.835095     21.253229
  Si     15.812670     21.333727     10.274619
  Si     15.748513     21.308461     15.707264
  Si     21.259071     10.382237     10.369270
  Si     21.303381     10.367741     15.835638
  Si     21.336619     15.800565     10.322290
  Si     21.243598     15.788558     15.775954
  H       5.357028     10.875464     10.852790
  H       5.344152     18.098872     18.008378
  H      10.862370      5.396372     10.856171
  H      10.837589     10.872032      5.376335
  H      10.727572     18.149842     23.479484
  H      10.795903     23.629223     17.958305
  H      18.031613      5.430219     18.071170
  H      17.979008     10.891217     23.572115
  H      18.048971     18.039660      5.354780
  H      18.088627     23.526151     10.739100
  H      23.484656     10.843734     18.117462
  H      23.556236     18.047879     10.817699
  H       5.359631      8.104815     13.572668
  H       5.332783     13.602571      8.100698
  H       5.308664     15.351031     20.750346
  H       5.333881     20.856155     15.263150
  H      12.306381      2.339163     15.021009
  H      10.649317      2.812082     13.356464
  H      10.854596      8.137514      8.117396
  H      10.599387     13.362723      2.795483
  H      12.238990     15.040196      2.305580
  H      10.755863     20.870564     20.703876
  H      18.297918      2.865466     15.562608
  H      16.638813      2.346085     13.911902
  H      17.985960      8.162543     20.813798
  H      16.637443     13.881195      2.292029
  H      18.282861     15.548741      2.800001
  H      18.042516     20.768720      8.054895
  H      23.518027      8.107034     15.358838
  H      23.550494     15.319641      8.070573
  H       6.730419      6.738762     16.699824
  H       6.670982     12.250066     22.122996
  H       6.698482     19.430692      9.442345
  H      12.158030      6.756827     22.155542
  H      12.191638     19.438385      3.932102
  H      13.863165     19.493188     22.104796
  H      11.973266     24.685352      9.122410
  H      13.611335     25.224050     10.786928
  H      12.489681     25.240692     15.123373
  H      14.143311     24.767311     16.790529
  H      19.413196      6.768349      9.492599
  H      19.438318     12.182071      3.961899
  H      19.336599     13.996792     22.166743
  H      19.371601     19.430901     16.627036
  H      25.208118     13.618575     10.876222
  H      24.682401     11.946336      9.241313
  H      24.685076     14.180715     16.918214
  H      25.161206     12.490607     15.288468
  H       6.703290      9.508374     19.401425
  H       6.697926     16.719857      6.723457
  H       6.691806     22.188483     12.123537
  H      12.188304      3.989899     19.446752
  H      11.884106      9.273355     24.670519
  H      13.536931     10.924507     25.206812
  H      12.376226     15.325109     25.153462
  H      14.060670     16.962744     24.690861
  H      12.208917     22.153995      6.664797
  H      13.887251     22.221217     19.344698
  H      19.453752      4.018563     12.208942
  H      19.402293      9.495399      6.731590
  H      19.343673     16.702470     19.398043
  H      19.414293     22.160644     13.884610
  H      25.198029     10.900992     13.626002
  H      24.663332      9.228441     11.994205
  H      24.702233     16.893601     14.166923
  H      25.189516     15.218812     12.524169
  H       2.801520     10.623913     13.333406
  H       2.291161     12.255433     15.013257
  H       2.269582     16.692296     13.873952
  H       2.802156     18.336736     15.532903
  H       8.110167      5.368371     13.581137
  H       8.093972     10.881758      8.117771
  H       8.045508     18.097203     20.731042
  H       8.057917     23.614758     15.229775
  H      13.584950      5.391106      8.102519
  H      15.298312      5.405851     20.813451
  H      14.983060     12.287448      2.298065
  H      13.330378     10.628817      2.809211
  H      15.549371     18.288498      2.802386
  H      13.907926     16.622260      2.277328
  H      15.335784     23.532460      7.998329
  H      20.775609      5.403146     15.341519
  H      20.711572     10.868600     20.822474
  H      20.793334     18.024870      8.085506
  H       2.774394     13.375131     10.621439
  H       2.287640     15.034217     12.279977
  H       2.279305     13.932315     16.591740
  H       2.786197     15.571897     18.263452
  H       8.108538      8.131112     10.861698
  H       8.071305     13.593725      5.360278
  H       8.002480     15.374292     23.501080
  H       8.070120     20.861068     17.964277
  H      15.043120      2.349235     12.265217
  H      13.371739      2.835107     10.617707
  H      15.567979      2.869686     18.309061
  H      13.915619      2.329720     16.658970
  H      13.573250      8.123420      5.364084
  H      15.269830      8.133304     23.561561
  H      15.315511     20.774568      5.310661
  H      20.743025      8.146968     18.068124
  H      20.797770     15.316087      5.346828
  H      20.794466     20.767088     10.778754
  H       3.935198     12.228469     19.418868
  H       3.930892     19.473892     12.151509
  H       9.463909      6.748240     19.405428
  H      10.805449     13.665627     25.181253
  H       9.143171     12.022185     24.648980
  H       9.466759     19.425864      6.694767
  H       9.213881     24.710460     11.848114
  H      10.854360     25.255641     13.507717
  H      16.702674      6.771242      6.728480
  H      16.794673     14.231991     24.714110
  H      15.132663     12.572550     25.190351
  H      16.599425     19.456729     19.365340
  H      15.262592     25.206957     12.387236
  H      16.897668     24.732292     14.073264
  H      22.150188      6.764607     12.231488
  H      22.153113     12.185805      6.723175
  H      22.096402     13.982549     19.441699
  H      22.147207     19.417112     13.912916
  H       3.962295      9.455968     16.698335
  H       3.927964     16.712897      9.443867
  H       9.466014      3.974315     16.695363
  H       9.416449      9.506629     22.113434
  H       9.420084     16.718352      3.962674
  H       9.457956     22.147886      9.397567
  H      16.720686      4.020134      9.445233
  H      16.681780      9.472755      3.957859
  H      16.584011     16.726140     22.122589
  H      16.635595     22.179509     16.598949
  H      22.123700      9.480704      9.486073
  H      22.107484     16.686859     16.663333
